@<TRIPOS>MOLECULE
*****
 69 74 0 0 0
SMALL
GASTEIGER

@<TRIPOS>ATOM
      1 O         -19.2910  -16.3260  -25.3800 O.3     1  UNL11      -0.4811
      2 C         -19.8130  -14.0110  -27.1170 C.3     1  UNL11       0.0528
      3 C         -19.8220  -15.4740  -27.6160 C.3     1  UNL11       0.1074
      4 C         -20.2120  -16.4240  -26.4750 C.3     1  UNL11       0.1520
      5 C         -19.3670  -13.9070  -25.6700 C.ar    1  UNL11       0.0461
      6 C         -19.1250  -15.0530  -24.9030 C.ar    1  UNL11       0.1323
      7 C         -19.2130  -12.6500  -25.0580 C.ar    1  UNL11       0.1276
      8 C         -18.6720  -14.9480  -23.5850 C.ar    1  UNL11       0.0221
      9 C         -18.7780  -12.5460  -23.7350 C.ar    1  UNL11       0.0218
     10 C         -18.4990  -13.6940  -23.0030 C.ar    1  UNL11       0.1238
     11 C         -19.0000  -13.1380  -28.0680 C.ar    1  UNL11       0.0463
     12 C         -17.6060  -13.2250  -28.0880 C.ar    1  UNL11       0.1355
     13 O         -17.0450  -14.1120  -27.2090 O.3     1  UNL11      -0.4808
     14 C         -16.8610  -12.4080  -28.9460 C.ar    1  UNL11       0.0387
     15 C         -15.6600  -14.4220  -27.4330 C.3     1  UNL11       0.1513
     16 C         -14.8240  -13.1670  -27.7220 C.3     1  UNL11       0.1004
     17 C         -15.3640  -12.4800  -28.9730 C.3     1  UNL11       0.0092
     18 C         -17.5330  -11.5340  -29.8110 C.ar    1  UNL11       0.1271
     19 C         -18.9260  -11.4580  -29.7980 C.ar    1  UNL11       0.0221
     20 C         -19.6590  -12.2570  -28.9240 C.ar    1  UNL11       0.1277
     21 C         -15.1660  -15.1610  -26.2020 C.ar    1  UNL11      -0.0012
     22 C         -15.4540  -14.6640  -24.9330 C.ar    1  UNL11      -0.0098
     23 C         -15.0000  -15.3420  -23.8010 C.ar    1  UNL11       0.1586
     24 C         -14.2590  -16.5150  -23.9430 C.ar    1  UNL11       0.1582
     25 C         -13.9710  -17.0100  -25.2150 C.ar    1  UNL11      -0.0162
     26 C         -14.4250  -16.3320  -26.3460 C.ar    1  UNL11      -0.0513
     27 O         -15.2890  -14.8500  -22.5650 O.3     1  UNL11      -0.5033
     28 H         -15.0880  -13.8980  -22.5480 H       1  UNL11       0.2923
     29 O         -13.8100  -17.1870  -22.8460 O.3     1  UNL11      -0.5033
     30 H         -12.8370  -17.1630  -22.8360 H       1  UNL11       0.2923
     31 O         -13.4670  -13.5320  -27.9500 O.3     1  UNL11      -0.3875
     32 H         -13.3820  -13.7710  -28.8900 H       1  UNL11       0.2100
     33 O         -16.8430  -10.7410  -30.6810 O.3     1  UNL11      -0.5063
     34 H         -17.3850   -9.9640  -30.9030 H       1  UNL11       0.2921
     35 O         -21.0190  -12.1650  -28.9220 O.3     1  UNL11      -0.5062
     36 H         -21.2990  -11.7060  -29.7320 H       1  UNL11       0.2921
     37 O         -20.7890  -15.6010  -28.6600 O.3     1  UNL11      -0.3868
     38 H         -21.6740  -15.5480  -28.2620 H       1  UNL11       0.2100
     39 C         -20.2200  -17.8760  -26.9200 C.ar    1  UNL11       0.0023
     40 C         -19.3300  -18.7820  -26.3500 C.ar    1  UNL11      -0.0095
     41 C         -19.3400  -20.1160  -26.7580 C.ar    1  UNL11       0.1623
     42 C         -20.2390  -20.5400  -27.7370 C.ar    1  UNL11       0.2006
     43 C         -21.1290  -19.6300  -28.3060 C.ar    1  UNL11       0.1623
     44 C         -21.1200  -18.2960  -27.8980 C.ar    1  UNL11      -0.0095
     45 O         -18.4630  -20.9940  -26.1950 O.3     1  UNL11      -0.5032
     46 H         -17.7220  -20.5080  -25.8000 H       1  UNL11       0.2923
     47 O         -20.2490  -21.8440  -28.1350 O.3     1  UNL11      -0.5009
     48 H         -19.9310  -22.4080  -27.4110 H       1  UNL11       0.2924
     49 O         -22.0150  -20.0300  -29.2610 O.3     1  UNL11      -0.5032
     50 H         -22.6290  -19.2960  -29.4360 H       1  UNL11       0.2923
     51 O         -19.4960  -11.4950  -25.7290 O.3     1  UNL11      -0.5062
     52 H         -20.3160  -11.6110  -26.2390 H       1  UNL11       0.2921
     53 O         -18.0660  -13.5940  -21.7160 O.3     1  UNL11      -0.5065
     54 H         -17.0940  -13.5370  -21.7150 H       1  UNL11       0.2921
     55 H         -20.8157  -13.6376  -27.1258 H       1  UNL1        0.0429
     56 H         -18.8444  -15.7262  -27.9704 H       1  UNL1        0.0643
     57 H         -21.1950  -16.1273  -26.1740 H       1  UNL1        0.0811
     58 H         -18.4653  -15.8008  -23.0419 H       1  UNL1        0.0691
     59 H         -18.6637  -11.6167  -23.3009 H       1  UNL1        0.0691
     60 H         -15.5547  -15.0338  -28.3045 H       1  UNL1        0.0811
     61 H         -14.8822  -12.5059  -26.8826 H       1  UNL1        0.0637
     62 H         -14.9674  -11.4876  -29.0254 H       1  UNL1        0.0342
     63 H         -15.0667  -13.0497  -29.8285 H       1  UNL1        0.0342
     64 H         -19.4133  -10.8096  -30.4361 H       1  UNL1        0.0691
     65 H         -16.0023  -13.7957  -24.8302 H       1  UNL1        0.0659
     66 H         -13.4221  -17.8777  -25.3191 H       1  UNL1        0.0655
     67 H         -14.2125  -16.6969  -27.2876 H       1  UNL1        0.0623
     68 H         -18.6641  -18.4674  -25.6270 H       1  UNL1        0.0659
     69 H         -21.7780  -17.6218  -28.3192 H       1  UNL1        0.0659
@<TRIPOS>BOND
     1    34    33    1
     2    33    18    1
     3    18    19   ar
     4    18    14   ar
     5    19    20   ar
     6    36    35    1
     7    50    49    1
     8    49    43    1
     9    17    14    1
    10    17    16    1
    11    14    12   ar
    12    20    35    1
    13    20    11   ar
    14    32    31    1
    15    37    38    1
    16    37     3    1
    17    43    44   ar
    18    43    42   ar
    19    47    42    1
    20    47    48    1
    21    12    11   ar
    22    12    13    1
    23    11     2    1
    24    31    16    1
    25    44    39   ar
    26    42    41   ar
    27    16    15    1
    28     3     2    1
    29     3     4    1
    30    15    13    1
    31    15    21    1
    32     2     5    1
    33    39     4    1
    34    39    40   ar
    35    41    40   ar
    36    41    45    1
    37     4     1    1
    38    26    21   ar
    39    26    25   ar
    40    52    51    1
    41    21    22   ar
    42    45    46    1
    43    51     7    1
    44     5     7   ar
    45     5     6   ar
    46     1     6    1
    47    25    24   ar
    48     7     9   ar
    49    22    23   ar
    50     6     8   ar
    51    24    23   ar
    52    24    29    1
    53    23    27    1
    54     9    10   ar
    55     8    10   ar
    56    10    53    1
    57    29    30    1
    58    27    28    1
    59    53    54    1
    60     2    55    1
    61     3    56    1
    62     4    57    1
    63     8    58    1
    64     9    59    1
    65    15    60    1
    66    16    61    1
    67    17    62    1
    68    17    63    1
    69    19    64    1
    70    22    65    1
    71    25    66    1
    72    26    67    1
    73    40    68    1
    74    44    69    1
