@<TRIPOS>MOLECULE
*****
 66 72 0 0 0
SMALL
USER_CHARGES

@<TRIPOS>ATOM
      1 O         -18.3080  -15.2340  -25.1000 O.3     1  UNL1       -0.4444
      2 O         -20.2120  -15.1840  -26.5500 O.3     1  UNL1       -0.4444
      3 O         -13.8050  -16.5630  -25.2240 O.3     1  UNL1       -0.4811
      4 C         -18.0360  -13.4480  -27.3620 C.3     1  UNL1        0.0567
      5 C         -18.9440  -13.0990  -26.1790 C.3     1  UNL1        0.1477
      6 C         -19.4270  -14.4410  -25.5820 C.3     1  UNL1        0.3074
      7 C         -16.8770  -14.2320  -26.8010 C.ar    1  UNL1        0.0466
      8 C         -18.8120  -14.3010  -28.3370 C.ar    1  UNL1        0.0463
      9 C         -17.0940  -15.0930  -25.7200 C.ar    1  UNL1        0.1365
     10 C         -19.8360  -15.1310  -27.8650 C.ar    1  UNL1        0.1365
     11 C         -15.6000  -14.1470  -27.3700 C.ar    1  UNL1        0.1309
     12 C         -14.5380  -14.9060  -26.8590 C.ar    1  UNL1        0.0387
     13 C         -13.1730  -14.7900  -27.4830 C.3     1  UNL1        0.0092
     14 C         -14.7760  -15.7780  -25.7900 C.ar    1  UNL1        0.1317
     15 C         -16.0460  -15.8590  -25.2120 C.ar    1  UNL1        0.0228
     16 C         -12.1050  -15.4160  -26.5890 C.3     1  UNL1        0.1004
     17 C         -12.6280  -16.7440  -26.0260 C.3     1  UNL1        0.1513
     18 C         -18.4980  -14.3040  -29.7020 C.ar    1  UNL1        0.1276
     19 C         -20.5480  -15.9400  -28.7510 C.ar    1  UNL1        0.0222
     20 C         -19.2100  -15.1170  -30.5840 C.ar    1  UNL1        0.0218
     21 C         -20.2350  -15.9330  -30.1090 C.ar    1  UNL1        0.1238
     22 C         -20.3230  -14.3070  -24.3460 C.ar    1  UNL1        0.0424
     23 C         -19.8900  -13.5640  -23.2470 C.ar    1  UNL1       -0.0059
     24 C         -20.7080  -13.4400  -22.1230 C.ar    1  UNL1        0.1587
     25 C         -21.9560  -14.0610  -22.0980 C.ar    1  UNL1        0.1582
     26 C         -22.3890  -14.8040  -23.1970 C.ar    1  UNL1       -0.0160
     27 C         -21.5720  -14.9270  -24.3200 C.ar    1  UNL1       -0.0475
     28 O         -20.2750  -12.7100  -21.0580 O.3     1  UNL1       -0.5033
     29 H         -20.0700  -13.3120  -20.3220 H       1  UNL1        0.2923
     30 O         -22.7620  -13.9470  -21.0060 O.3     1  UNL1       -0.5033
     31 H         -23.6540  -14.2610  -21.2360 H       1  UNL1        0.2923
     32 O         -20.0370  -12.2960  -26.6140 O.3     1  UNL1       -0.3827
     33 H         -19.9390  -12.1640  -27.5720 H       1  UNL1        0.2102
     34 O         -15.3670  -13.2940  -28.4110 O.3     1  UNL1       -0.5060
     35 H         -14.4210  -13.1200  -28.5230 H       1  UNL1        0.2922
     36 O         -17.5280  -13.4980  -30.2150 O.3     1  UNL1       -0.5062
     37 H         -17.1030  -13.9420  -30.9700 H       1  UNL1        0.2921
     38 O         -20.9310  -16.7230  -30.9720 O.3     1  UNL1       -0.5065
     39 H         -20.7700  -17.6550  -30.7450 H       1  UNL1        0.2921
     40 C         -11.5690  -17.4690  -25.2160 C.ar    1  UNL1       -0.0012
     41 C         -11.3970  -17.1680  -23.8650 C.ar    1  UNL1       -0.0098
     42 C         -10.4250  -17.8340  -23.1200 C.ar    1  UNL1        0.1586
     43 C          -9.6230  -18.8020  -23.7260 C.ar    1  UNL1        0.1582
     44 C          -9.7940  -19.1030  -25.0770 C.ar    1  UNL1       -0.0162
     45 C         -10.7680  -18.4360  -25.8220 C.ar    1  UNL1       -0.0513
     46 O         -10.2680  -17.5330  -21.8010 O.3     1  UNL1       -0.5033
     47 H         -11.0600  -17.0620  -21.4860 H       1  UNL1        0.2923
     48 O          -8.6700  -19.4600  -23.0090 O.3     1  UNL1       -0.5033
     49 H          -8.0120  -18.8180  -22.6930 H       1  UNL1        0.2923
     50 O         -11.8000  -14.5180  -25.5220 O.3     1  UNL1       -0.3875
     51 H         -10.8340  -14.4130  -25.4930 H       1  UNL1        0.2100
     52 H         -17.6909  -12.5727  -27.8715 H       1  UNL1        0.0430
     53 H         -18.4226  -12.5293  -25.4384 H       1  UNL1        0.0685
     54 H         -12.9429  -13.7555  -27.6304 H       1  UNL1        0.0342
     55 H         -13.1813  -15.3103  -28.4179 H       1  UNL1        0.0342
     56 H         -16.2079  -16.4863  -24.4087 H       1  UNL1        0.0691
     57 H         -11.2175  -15.6022  -27.1569 H       1  UNL1        0.0637
     58 H         -12.8838  -17.3446  -26.8738 H       1  UNL1        0.0811
     59 H         -21.3074  -16.5444  -28.4003 H       1  UNL1        0.0691
     60 H         -18.9774  -15.1142  -31.5895 H       1  UNL1        0.0691
     61 H         -18.9652  -13.1064  -23.2654 H       1  UNL1        0.0660
     62 H         -23.3135  -15.2622  -23.1785 H       1  UNL1        0.0655
     63 H         -21.8916  -15.4772  -25.1325 H       1  UNL1        0.0624
     64 H         -11.9896  -16.4519  -23.4167 H       1  UNL1        0.0659
     65 H          -9.2008  -19.8184  -25.5257 H       1  UNL1        0.0655
     66 H         -10.8952  -18.6587  -26.8216 H       1  UNL1        0.0623
@<TRIPOS>BOND
     1     1     9    1
     2     1     6    1
     3     2    10    1
     4     2     6    1
     5     3    17    1
     6     3    14    1
     7     4     8    1
     8     4     7    1
     9     4     5    1
    10     5    32    1
    11     5     6    1
    12     6    22    1
    13     7    11   ar
    14     7     9   ar
    15     8    18   ar
    16     8    10   ar
    17     9    15   ar
    18    10    19   ar
    19    11    34    1
    20    11    12   ar
    21    12    13    1
    22    12    14   ar
    23    13    16    1
    24    14    15   ar
    25    16    17    1
    26    16    50    1
    27    17    40    1
    28    18    20   ar
    29    18    36    1
    30    19    21   ar
    31    20    21   ar
    32    21    38    1
    33    22    27   ar
    34    22    23   ar
    35    23    24   ar
    36    24    25   ar
    37    24    28    1
    38    25    26   ar
    39    25    30    1
    40    26    27   ar
    41    28    29    1
    42    30    31    1
    43    32    33    1
    44    34    35    1
    45    36    37    1
    46    38    39    1
    47    40    45   ar
    48    40    41   ar
    49    41    42   ar
    50    42    43   ar
    51    42    46    1
    52    43    44   ar
    53    43    48    1
    54    44    45   ar
    55    46    47    1
    56    48    49    1
    57    50    51    1
    58     4    52    1
    59     5    53    1
    60    13    54    1
    61    13    55    1
    62    15    56    1
    63    16    57    1
    64    17    58    1
    65    19    59    1
    66    20    60    1
    67    23    61    1
    68    26    62    1
    69    27    63    1
    70    41    64    1
    71    44    65    1
    72    45    66    1
