@<TRIPOS>MOLECULE
./../dock_file/temp/d0e0b64a93c0ef4dae4e886b6c92596a/5wb0_M:5_5wb0_M_IMPHY002722_3D_out_5.-9.4:1756376198366/5wb0_M:5_5wb0_M_IMPHY002722_3D_out_5.-9.4_out_1.pdbqt
 68 75 0 0 0
SMALL
GASTEIGER

@<TRIPOS>ATOM
      1  O        -20.2900  -13.7360  -23.5340 O.3     1  UNL1       -0.3040
      2  O        -21.2900  -15.8160  -23.0750 O.3     1  UNL1       -0.3040
      3  O        -16.9410  -15.4540  -26.4910 O.3     1  UNL1       -0.3270
      4  C        -19.5200  -15.8250  -25.3770 C.3     1  UNL1        0.0840
      5  C        -20.9170  -15.2080  -25.4660 C.3     1  UNL1        0.1750
      6  C        -21.2290  -14.7200  -24.0190 C.3     1  UNL1        0.2420
      7  C        -18.5650  -14.7350  -24.9300 C.ar    1  UNL1        0.0290
      8  C        -19.5690  -16.9550  -24.3750 C.ar    1  UNL1        0.0290
      9  C        -19.0040  -13.7970  -23.9940 C.ar    1  UNL1        0.0970
     10  C        -17.2750  -14.5960  -25.4680 C.ar    1  UNL1        0.0910
     11  C        -20.4270  -16.8590  -23.2730 C.ar    1  UNL1        0.0970
     12  C        -16.4000  -13.5830  -25.0340 C.ar    1  UNL1        0.0250
     13  C        -15.0470  -13.4280  -25.6730 C.3     1  UNL1        0.0630
     14  C        -14.7460  -14.5210  -26.7040 C.3     1  UNL1        0.1610
     15  C        -16.0360  -14.8890  -27.4680 C.3     1  UNL1        0.1720
     16  C        -18.1480  -12.7990  -23.5380 C.ar    1  UNL1        0.0480
     17  C        -16.8560  -12.7020  -24.0470 C.ar    1  UNL1        0.0890
     18  C        -18.7580  -18.0910  -24.4920 C.ar    1  UNL1        0.0900
     19  C        -20.4680  -17.8660  -22.3070 C.ar    1  UNL1        0.0480
     20  C        -18.7900  -19.1020  -23.5340 C.ar    1  UNL1        0.0480
     21  C        -19.6450  -18.9770  -22.4450 C.ar    1  UNL1        0.0930
     22  O        -13.6650  -14.0820  -27.5460 O.3     1  UNL1       -0.2980
     23  C        -12.8200  -15.0520  -27.9740 C.2     1  UNL1        0.2960
     24  O        -12.3590  -15.1510  -29.1000 O.2     1  UNL1       -0.2590
     25  C        -12.4880  -15.9840  -26.8660 C.ar    1  UNL1        0.0670
     26  C        -11.4110  -15.7530  -25.9940 C.ar    1  UNL1        0.0310
     27  C        -11.1400  -16.6720  -24.9900 C.ar    1  UNL1        0.1140
     28  C        -11.9250  -17.8070  -24.8390 C.ar    1  UNL1        0.1340
     29  C        -12.9960  -18.0380  -25.6950 C.ar    1  UNL1        0.1140
     30  C        -13.2850  -17.1350  -26.7110 C.ar    1  UNL1        0.0310
     31  O        -10.0870  -16.4510  -24.1520 O.3     1  UNL1       -0.3570
     32  H         -9.8730  -17.3320  -23.7820 H       1  UNL1        0.2170
     33  O        -11.6270  -18.6900  -23.8380 O.3     1  UNL1       -0.3560
     34  H        -11.6550  -18.1500  -23.0200 H       1  UNL1        0.2180
     35  O        -13.7340  -19.1710  -25.4980 O.3     1  UNL1       -0.3570
     36  H        -14.6360  -19.0180  -25.8270 H       1  UNL1        0.2170
     37  C        -16.7580  -13.8290  -28.3160 C.ar    1  UNL1        0.0110
     38  C        -16.0880  -12.8500  -29.0670 C.ar    1  UNL1        0.0240
     39  C        -16.8160  -11.8960  -29.7830 C.ar    1  UNL1        0.1130
     40  C        -18.2100  -11.8920  -29.7630 C.ar    1  UNL1        0.1340
     41  C        -18.8910  -12.8630  -29.0440 C.ar    1  UNL1        0.1130
     42  C        -18.1720  -13.8440  -28.3670 C.ar    1  UNL1        0.0240
     43  O        -16.1930  -10.9240  -30.5190 O.3     1  UNL1       -0.3570
     44  H        -16.7450  -10.7130  -31.2900 H       1  UNL1        0.2170
     45  O        -18.8850  -10.9190  -30.4480 O.3     1  UNL1       -0.3560
     46  H        -18.7430  -11.1350  -31.3890 H       1  UNL1        0.2180
     47  O        -20.2550  -12.8510  -28.9810 O.3     1  UNL1       -0.3570
     48  H        -20.5880  -13.7600  -29.1040 H       1  UNL1        0.2170
     49  O        -16.0980  -11.6780  -23.5520 O.3     1  UNL1       -0.3590
     50  H        -16.5540  -10.8320  -23.6730 H       1  UNL1        0.2170
     51  O        -20.9560  -14.1930  -26.4960 O.3     1  UNL1       -0.3790
     52  H        -20.2700  -14.4190  -27.1560 H       1  UNL1        0.2110
     53  C        -22.6320  -14.0850  -23.9980 C.ar    1  UNL1        0.0360
     54  C        -22.9560  -12.9810  -24.8180 C.ar    1  UNL1        0.0260
     55  C        -24.2380  -12.4260  -24.7950 C.ar    1  UNL1        0.1130
     56  C        -25.2120  -12.9630  -23.9640 C.ar    1  UNL1        0.1340
     57  C        -24.9130  -14.0570  -23.1560 C.ar    1  UNL1        0.1130
     58  C        -23.6400  -14.6210  -23.1670 C.ar    1  UNL1        0.0260
     59  O        -24.5430  -11.3540  -25.5850 O.3     1  UNL1       -0.3570
     60  H        -23.9200  -11.3120  -26.3260 H       1  UNL1        0.2170
     61  O        -26.4740  -12.4340  -23.9260 O.3     1  UNL1       -0.3560
     62  H        -26.7030  -12.2700  -24.8600 H       1  UNL1        0.2180
     63  O        -25.9100  -14.5500  -22.3560 O.3     1  UNL1       -0.3570
     64  H        -26.7660  -14.3100  -22.7490 H       1  UNL1        0.2170
     65  O        -17.9370  -18.2070  -25.5770 O.3     1  UNL1       -0.3590
     66  H        -17.1360  -17.6780  -25.4290 H       1  UNL1        0.2170
     67  O        -19.6480  -19.9830  -21.5250 O.3     1  UNL1       -0.3590
     68  H        -18.8320  -20.5020  -21.6240 H       1  UNL1        0.2170
@<TRIPOS>BOND
     1    46    45    1
     2    44    43    1
     3    43    39    1
     4    45    40    1
     5    39    40   ar
     6    39    38   ar
     7    40    41   ar
     8    48    47    1
     9    24    23    2
    10    38    37   ar
    11    41    47    1
    12    41    42   ar
    13    42    37   ar
    14    37    15    1
    15    23    22    1
    16    23    25    1
    17    22    14    1
    18    15    14    1
    19    15     3    1
    20    52    51    1
    21    25    30   ar
    22    25    26   ar
    23    30    29   ar
    24    14    13    1
    25    51     5    1
    26     3    10    1
    27    60    59    1
    28    26    27   ar
    29    36    35    1
    30    29    35    1
    31    29    28   ar
    32    13    12    1
    33    59    55    1
    34    65    66    1
    35    65    18    1
    36    10    12   ar
    37    10     7   ar
    38     5     4    1
    39     5     6    1
    40     4     7    1
    41     4     8    1
    42    12    17   ar
    43    27    28   ar
    44    27    31    1
    45     7     9   ar
    46    62    61    1
    47    28    33    1
    48    54    55   ar
    49    54    53   ar
    50    55    56   ar
    51    18     8   ar
    52    18    20   ar
    53     8    11   ar
    54    31    32    1
    55    17    49    1
    56    17    16   ar
    57     6    53    1
    58     6     1    1
    59     6     2    1
    60    53    58   ar
    61     9    16   ar
    62     9     1    1
    63    56    61    1
    64    56    57   ar
    65    33    34    1
    66    50    49    1
    67    20    21   ar
    68    11     2    1
    69    11    19   ar
    70    58    57   ar
    71    57    63    1
    72    64    63    1
    73    21    19   ar
    74    21    67    1
    75    68    67    1
@<TRIPOS>MOLECULE
./../dock_file/temp/d0e0b64a93c0ef4dae4e886b6c92596a/5wb0_M:5_5wb0_M_IMPHY002722_3D_out_5.-9.4:1756376198366/5wb0_M:5_5wb0_M_IMPHY002722_3D_out_5.-9.4_out_1.pdbqt
 68 75 0 0 0
SMALL
GASTEIGER

@<TRIPOS>ATOM
      1  O        -19.0910  -13.9680  -29.1850 O.3     1  UNL1       -0.3040
      2  O        -16.9520  -13.0000  -29.3310 O.3     1  UNL1       -0.3040
      3  O        -18.5410  -15.6890  -24.7530 O.3     1  UNL1       -0.3270
      4  C        -17.7540  -13.7220  -26.6350 C.3     1  UNL1        0.0840
      5  C        -18.3280  -12.4790  -27.3160 C.3     1  UNL1        0.1750
      6  C        -18.2990  -12.8110  -28.8380 C.3     1  UNL1        0.2420
      7  C        -18.6580  -14.8910  -26.9760 C.ar    1  UNL1        0.0290
      8  C        -16.3540  -13.9420  -27.1610 C.ar    1  UNL1        0.0290
      9  C        -19.2210  -14.9570  -28.2520 C.ar    1  UNL1        0.0970
     10  C        -19.0030  -15.8760  -26.0360 C.ar    1  UNL1        0.0910
     11  C        -16.0570  -13.5960  -28.4850 C.ar    1  UNL1        0.0970
     12  C        -19.8370  -16.9580  -26.3740 C.ar    1  UNL1        0.0250
     13  C        -20.2300  -17.9640  -25.3270 C.3     1  UNL1        0.0630
     14  C        -19.5510  -17.7170  -23.9770 C.3     1  UNL1        0.1610
     15  C        -19.4220  -16.1990  -23.7250 C.3     1  UNL1        0.1720
     16  C        -20.0330  -16.0290  -28.6110 C.ar    1  UNL1        0.0480
     17  C        -20.3280  -17.0230  -27.6820 C.ar    1  UNL1        0.0890
     18  C        -15.3440  -14.5120  -26.3760 C.ar    1  UNL1        0.0900
     19  C        -14.7850  -13.8230  -29.0150 C.ar    1  UNL1        0.0480
     20  C        -14.0710  -14.7420  -26.8960 C.ar    1  UNL1        0.0480
     21  C        -13.8050  -14.3980  -28.2160 C.ar    1  UNL1        0.0930
     22  O        -20.2730  -18.4270  -22.9540 O.3     1  UNL1       -0.2980
     23  C        -19.7280  -19.6040  -22.5580 C.2     1  UNL1        0.2960
     24  O        -18.6440  -19.7410  -22.0150 O.2     1  UNL1       -0.2590
     25  C        -20.6530  -20.7320  -22.8420 C.ar    1  UNL1        0.0670
     26  C        -20.6760  -21.3810  -24.0870 C.ar    1  UNL1        0.0310
     27  C        -21.5770  -22.4150  -24.2980 C.ar    1  UNL1        0.1140
     28  C        -22.4450  -22.8140  -23.2900 C.ar    1  UNL1        0.1340
     29  C        -22.4220  -22.1790  -22.0540 C.ar    1  UNL1        0.1140
     30  C        -21.5330  -21.1370  -21.8200 C.ar    1  UNL1        0.0310
     31  O        -21.6050  -23.0360  -25.5110 O.3     1  UNL1       -0.3570
     32  H        -20.6630  -23.1710  -25.7450 H       1  UNL1        0.2170
     33  O        -23.3190  -23.8370  -23.5350 O.3     1  UNL1       -0.3560
     34  H        -23.0350  -24.5510  -22.9260 H       1  UNL1        0.2180
     35  O        -23.2990  -22.6130  -21.1000 O.3     1  UNL1       -0.3570
     36  H        -22.8580  -23.2840  -20.5520 H       1  UNL1        0.2170
     37  C        -20.6850  -15.3260  -23.6210 C.ar    1  UNL1        0.0110
     38  C        -21.8510  -15.7290  -22.9510 C.ar    1  UNL1        0.0240
     39  C        -22.9710  -14.8940  -22.9320 C.ar    1  UNL1        0.1130
     40  C        -22.9580  -13.6580  -23.5770 C.ar    1  UNL1        0.1340
     41  C        -21.8090  -13.2340  -24.2260 C.ar    1  UNL1        0.1130
     42  C        -20.6740  -14.0400  -24.2090 C.ar    1  UNL1        0.0240
     43  O        -24.1270  -15.2610  -22.2930 O.3     1  UNL1       -0.3570
     44  H        -24.8740  -15.1330  -22.9020 H       1  UNL1        0.2170
     45  O        -24.0870  -12.8870  -23.5650 O.3     1  UNL1       -0.3560
     46  H        -23.9820  -12.2820  -24.3240 H       1  UNL1        0.2180
     47  O        -21.7900  -12.0440  -24.8970 O.3     1  UNL1       -0.3570
     48  H        -22.0300  -12.2000  -25.8300 H       1  UNL1        0.2170
     49  O        -21.1490  -18.0230  -28.1230 O.3     1  UNL1       -0.3590
     50  H        -20.6410  -18.6830  -28.6190 H       1  UNL1        0.2170
     51  O        -19.6260  -12.1550  -26.7650 O.3     1  UNL1       -0.3790
     52  H        -19.7540  -12.7130  -25.9720 H       1  UNL1        0.2110
     53  C        -18.8540  -11.6060  -29.6220 C.ar    1  UNL1        0.0360
     54  C        -18.0000  -10.6230  -30.1690 C.ar    1  UNL1        0.0260
     55  C        -18.5200   -9.5440  -30.8880 C.ar    1  UNL1        0.1130
     56  C        -19.8920   -9.4330  -31.0770 C.ar    1  UNL1        0.1340
     57  C        -20.7480  -10.3970  -30.5530 C.ar    1  UNL1        0.1130
     58  C        -20.2450  -11.4780  -29.8330 C.ar    1  UNL1        0.0260
     59  O        -17.6890   -8.5930  -31.4090 O.3     1  UNL1       -0.3570
     60  H        -17.4590   -7.9540  -30.7180 H       1  UNL1        0.2170
     61  O        -20.4220   -8.3840  -31.7780 O.3     1  UNL1       -0.3560
     62  H        -19.7860   -8.2200  -32.5000 H       1  UNL1        0.2180
     63  O        -22.0910  -10.2420  -30.7700 O.3     1  UNL1       -0.3570
     64  H        -22.5050   -9.9510  -29.9400 H       1  UNL1        0.2170
     65  O        -15.6150  -14.8270  -25.0770 O.3     1  UNL1       -0.3590
     66  H        -15.4710  -14.0440  -24.5210 H       1  UNL1        0.2170
     67  O        -12.5510  -14.6410  -28.6920 O.3     1  UNL1       -0.3590
     68  H        -12.5660  -15.4630  -29.2120 H       1  UNL1        0.2170
@<TRIPOS>BOND
     1    62    61    1
     2    61    56    1
     3    59    55    1
     4    59    60    1
     5    56    55   ar
     6    56    57   ar
     7    55    54   ar
     8    63    57    1
     9    63    64    1
    10    57    58   ar
    11    54    53   ar
    12    58    53   ar
    13    53     6    1
    14     2     6    1
    15     2    11    1
    16    68    67    1
    17     1     6    1
    18     1     9    1
    19    19    11   ar
    20    19    21   ar
    21     6     5    1
    22    67    21    1
    23    50    49    1
    24    16     9   ar
    25    16    17   ar
    26    11     8   ar
    27     9     7   ar
    28    21    20   ar
    29    49    17    1
    30    17    12   ar
    31     5    51    1
    32     5     4    1
    33     8     4    1
    34     8    18   ar
    35     7     4    1
    36     7    10   ar
    37    20    18   ar
    38    51    52    1
    39    18    65    1
    40    12    10   ar
    41    12    13    1
    42    10     3    1
    43    48    47    1
    44    32    31    1
    45    31    27    1
    46    13    14    1
    47    65    66    1
    48    47    41    1
    49     3    15    1
    50    46    45    1
    51    27    26   ar
    52    27    28   ar
    53    41    42   ar
    54    41    40   ar
    55    42    37   ar
    56    26    25   ar
    57    14    15    1
    58    14    22    1
    59    15    37    1
    60    37    38   ar
    61    40    45    1
    62    40    39   ar
    63    33    28    1
    64    33    34    1
    65    28    29   ar
    66    22    23    1
    67    38    39   ar
    68    39    43    1
    69    44    43    1
    70    25    23    1
    71    25    30   ar
    72    23    24    2
    73    29    30   ar
    74    29    35    1
    75    35    36    1
@<TRIPOS>MOLECULE
./../dock_file/temp/d0e0b64a93c0ef4dae4e886b6c92596a/5wb0_M:5_5wb0_M_IMPHY002722_3D_out_5.-9.4:1756376198366/5wb0_M:5_5wb0_M_IMPHY002722_3D_out_5.-9.4_out_1.pdbqt
 68 75 0 0 0
SMALL
GASTEIGER

@<TRIPOS>ATOM
      1  O        -19.0770  -13.9660  -29.1890 O.3     1  UNL1       -0.3040
      2  O        -16.9440  -12.9850  -29.3440 O.3     1  UNL1       -0.3040
      3  O        -18.4950  -15.6910  -24.7630 O.3     1  UNL1       -0.3270
      4  C        -17.7280  -13.7170  -26.6460 C.3     1  UNL1        0.0840
      5  C        -18.3140  -12.4760  -27.3220 C.3     1  UNL1        0.1750
      6  C        -18.2910  -12.8050  -28.8450 C.3     1  UNL1        0.2420
      7  C        -18.6280  -14.8910  -26.9840 C.ar    1  UNL1        0.0290
      8  C        -16.3300  -13.9280  -27.1800 C.ar    1  UNL1        0.0290
      9  C        -19.1960  -14.9580  -28.2570 C.ar    1  UNL1        0.0970
     10  C        -18.9620  -15.8800  -26.0450 C.ar    1  UNL1        0.0910
     11  C        -16.0420  -13.5780  -28.5040 C.ar    1  UNL1        0.0970
     12  C        -19.7910  -16.9660  -26.3800 C.ar    1  UNL1        0.0250
     13  C        -20.1730  -17.9760  -25.3330 C.3     1  UNL1        0.0630
     14  C        -19.4880  -17.7270  -23.9860 C.3     1  UNL1        0.1610
     15  C        -19.3670  -16.2090  -23.7320 C.3     1  UNL1        0.1720
     16  C        -20.0040  -16.0340  -28.6140 C.ar    1  UNL1        0.0480
     17  C        -20.2880  -17.0320  -27.6860 C.ar    1  UNL1        0.0890
     18  C        -15.3120  -14.4930  -26.4010 C.ar    1  UNL1        0.0900
     19  C        -14.7710  -13.7960  -29.0410 C.ar    1  UNL1        0.0480
     20  C        -14.0410  -14.7150  -26.9270 C.ar    1  UNL1        0.0480
     21  C        -13.7840  -14.3670  -28.2480 C.ar    1  UNL1        0.0930
     22  O        -20.2000  -18.4430  -22.9610 O.3     1  UNL1       -0.2980
     23  C        -19.4320  -19.1000  -22.0570 C.2     1  UNL1        0.2960
     24  O        -19.1910  -20.2960  -22.0620 O.2     1  UNL1       -0.2590
     25  C        -18.8770  -18.1540  -21.0550 C.ar    1  UNL1        0.0670
     26  C        -19.7020  -17.3820  -20.2220 C.ar    1  UNL1        0.0310
     27  C        -19.1230  -16.5010  -19.3190 C.ar    1  UNL1        0.1140
     28  C        -17.7420  -16.3850  -19.2310 C.ar    1  UNL1        0.1340
     29  C        -16.9200  -17.1510  -20.0490 C.ar    1  UNL1        0.1140
     30  C        -17.4760  -18.0370  -20.9650 C.ar    1  UNL1        0.0310
     31  O        -19.9260  -15.7450  -18.5190 O.3     1  UNL1       -0.3570
     32  H        -19.3940  -14.9490  -18.3120 H       1  UNL1        0.2170
     33  O        -17.2070  -15.5060  -18.3290 O.3     1  UNL1       -0.3560
     34  H        -17.9530  -14.9140  -18.0940 H       1  UNL1        0.2180
     35  O        -15.5690  -16.9940  -19.9180 O.3     1  UNL1       -0.3570
     36  H        -15.3970  -16.2350  -19.3350 H       1  UNL1        0.2170
     37  C        -20.6350  -15.3440  -23.6200 C.ar    1  UNL1        0.0110
     38  C        -21.7930  -15.7530  -22.9410 C.ar    1  UNL1        0.0240
     39  C        -22.9190  -14.9250  -22.9150 C.ar    1  UNL1        0.1130
     40  C        -22.9180  -13.6900  -23.5620 C.ar    1  UNL1        0.1340
     41  C        -21.7760  -13.2590  -24.2200 C.ar    1  UNL1        0.1130
     42  C        -20.6360  -14.0580  -24.2090 C.ar    1  UNL1        0.0240
     43  O        -24.0670  -15.2980  -22.2690 O.3     1  UNL1       -0.3570
     44  H        -24.4980  -14.5030  -21.9130 H       1  UNL1        0.2170
     45  O        -24.0520  -12.9260  -23.5430 O.3     1  UNL1       -0.3560
     46  H        -24.4700  -13.1230  -22.6830 H       1  UNL1        0.2180
     47  O        -21.7690  -12.0700  -24.8910 O.3     1  UNL1       -0.3570
     48  H        -20.9030  -11.6370  -24.7650 H       1  UNL1        0.2170
     49  O        -21.1060  -18.0350  -28.1250 O.3     1  UNL1       -0.3590
     50  H        -21.1950  -18.0000  -29.0890 H       1  UNL1        0.2170
     51  O        -19.6100  -12.1610  -26.7640 O.3     1  UNL1       -0.3790
     52  H        -20.2230  -12.0130  -27.5110 H       1  UNL1        0.2110
     53  C        -18.8570  -11.6030  -29.6240 C.ar    1  UNL1        0.0360
     54  C        -18.0110  -10.6130  -30.1720 C.ar    1  UNL1        0.0260
     55  C        -18.5410   -9.5360  -30.8880 C.ar    1  UNL1        0.1130
     56  C        -19.9140   -9.4330  -31.0700 C.ar    1  UNL1        0.1340
     57  C        -20.7620  -10.4030  -30.5430 C.ar    1  UNL1        0.1130
     58  C        -20.2490  -11.4830  -29.8280 C.ar    1  UNL1        0.0260
     59  O        -17.7190   -8.5790  -31.4100 O.3     1  UNL1       -0.3570
     60  H        -18.2550   -7.8850  -31.8240 H       1  UNL1        0.2170
     61  O        -20.4540   -8.3860  -31.7660 O.3     1  UNL1       -0.3560
     62  H        -19.7340   -8.0760  -32.3470 H       1  UNL1        0.2180
     63  O        -22.1070  -10.2560  -30.7530 O.3     1  UNL1       -0.3570
     64  H        -22.4180  -11.0040  -31.2900 H       1  UNL1        0.2170
     65  O        -15.5760  -14.8120  -25.1000 O.3     1  UNL1       -0.3590
     66  H        -16.2660  -14.2200  -24.7600 H       1  UNL1        0.2170
     67  O        -12.5310  -14.6010  -28.7310 O.3     1  UNL1       -0.3590
     68  H        -11.9550  -14.8700  -27.9940 H       1  UNL1        0.2170
@<TRIPOS>BOND
     1    62    61    1
     2    60    59    1
     3    61    56    1
     4    59    55    1
     5    64    63    1
     6    56    55   ar
     7    56    57   ar
     8    55    54   ar
     9    63    57    1
    10    57    58   ar
    11    54    53   ar
    12    58    53   ar
    13    53     6    1
    14     2     6    1
    15     2    11    1
    16     1     6    1
    17     1     9    1
    18    50    49    1
    19    19    11   ar
    20    19    21   ar
    21     6     5    1
    22    67    21    1
    23    67    68    1
    24    16     9   ar
    25    16    17   ar
    26    11     8   ar
    27     9     7   ar
    28    21    20   ar
    29    49    17    1
    30    17    12   ar
    31    52    51    1
    32     5    51    1
    33     5     4    1
    34     8     4    1
    35     8    18   ar
    36     7     4    1
    37     7    10   ar
    38    20    18   ar
    39    18    65    1
    40    12    10   ar
    41    12    13    1
    42    10     3    1
    43    13    14    1
    44    65    66    1
    45    47    48    1
    46    47    41    1
    47     3    15    1
    48    41    42   ar
    49    41    40   ar
    50    42    37   ar
    51    14    15    1
    52    14    22    1
    53    15    37    1
    54    37    38   ar
    55    40    45    1
    56    40    39   ar
    57    45    46    1
    58    22    23    1
    59    38    39   ar
    60    39    43    1
    61    43    44    1
    62    24    23    2
    63    23    25    1
    64    25    30   ar
    65    25    26   ar
    66    30    29   ar
    67    26    27   ar
    68    29    35    1
    69    29    28   ar
    70    35    36    1
    71    27    28   ar
    72    27    31    1
    73    28    33    1
    74    31    32    1
    75    33    34    1
@<TRIPOS>MOLECULE
./../dock_file/temp/d0e0b64a93c0ef4dae4e886b6c92596a/5wb0_M:5_5wb0_M_IMPHY002722_3D_out_5.-9.4:1756376198366/5wb0_M:5_5wb0_M_IMPHY002722_3D_out_5.-9.4_out_1.pdbqt
 68 75 0 0 0
SMALL
GASTEIGER

@<TRIPOS>ATOM
      1  O        -15.8820  -13.4470  -25.0900 O.3     1  UNL1       -0.3040
      2  O        -15.8450  -13.1910  -27.4280 O.3     1  UNL1       -0.3040
      3  O        -20.5300  -14.5530  -24.7980 O.3     1  UNL1       -0.3270
      4  C        -18.2010  -14.5510  -26.4130 C.3     1  UNL1        0.0840
      5  C        -16.8570  -15.2760  -26.5030 C.3     1  UNL1        0.1750
      6  C        -15.7890  -14.1510  -26.3470 C.3     1  UNL1        0.2420
      7  C        -18.2740  -13.8870  -25.0520 C.ar    1  UNL1        0.0290
      8  C        -18.2590  -13.5290  -27.5250 C.ar    1  UNL1        0.0290
      9  C        -17.1140  -13.3320  -24.5100 C.ar    1  UNL1        0.0970
     10  C        -19.4520  -13.8660  -24.2860 C.ar    1  UNL1        0.0910
     11  C        -17.0810  -12.8930  -27.9340 C.ar    1  UNL1        0.0970
     12  C        -19.5030  -13.2370  -23.0280 C.ar    1  UNL1        0.0250
     13  C        -20.7650  -13.2820  -22.2120 C.3     1  UNL1        0.0630
     14  C        -21.9250  -13.9620  -22.9450 C.3     1  UNL1        0.1610
     15  C        -21.3930  -15.1360  -23.7950 C.3     1  UNL1        0.1720
     16  C        -17.1480  -12.6900  -23.2760 C.ar    1  UNL1        0.0480
     17  C        -18.3340  -12.6350  -22.5500 C.ar    1  UNL1        0.0890
     18  C        -19.4630  -13.1690  -28.1440 C.ar    1  UNL1        0.0900
     19  C        -17.1050  -11.9150  -28.9310 C.ar    1  UNL1        0.0480
     20  C        -19.4980  -12.1940  -29.1390 C.ar    1  UNL1        0.0480
     21  C        -18.3150  -11.5710  -29.5210 C.ar    1  UNL1        0.0930
     22  O        -22.9290  -14.3360  -21.9830 O.3     1  UNL1       -0.2980
     23  C        -24.1520  -14.6290  -22.4910 C.2     1  UNL1        0.2960
     24  O        -24.6070  -15.7490  -22.6530 O.2     1  UNL1       -0.2590
     25  C        -24.9020  -13.3850  -22.8020 C.ar    1  UNL1        0.0670
     26  C        -25.0750  -12.3630  -21.8550 C.ar    1  UNL1        0.0310
     27  C        -25.8040  -11.2320  -22.2000 C.ar    1  UNL1        0.1140
     28  C        -26.3520  -11.1050  -23.4690 C.ar    1  UNL1        0.1340
     29  C        -26.1780  -12.1110  -24.4120 C.ar    1  UNL1        0.1140
     30  C        -25.4570  -13.2540  -24.0900 C.ar    1  UNL1        0.0310
     31  O        -25.9800  -10.2460  -21.2750 O.3     1  UNL1       -0.3570
     32  H        -26.4180  -10.6890  -20.5190 H       1  UNL1        0.2170
     33  O        -27.0630   -9.9760  -23.7740 O.3     1  UNL1       -0.3560
     34  H        -26.7180   -9.2970  -23.1570 H       1  UNL1        0.2180
     35  O        -26.7400  -11.9300  -25.6450 O.3     1  UNL1       -0.3570
     36  H        -26.6980  -10.9860  -25.8730 H       1  UNL1        0.2170
     37  C        -20.6940  -16.3250  -23.1130 C.ar    1  UNL1        0.0110
     38  C        -20.9610  -16.7280  -21.7960 C.ar    1  UNL1        0.0240
     39  C        -20.2570  -17.7970  -21.2340 C.ar    1  UNL1        0.1130
     40  C        -19.2790  -18.4750  -21.9600 C.ar    1  UNL1        0.1340
     41  C        -19.0160  -18.1050  -23.2700 C.ar    1  UNL1        0.1130
     42  C        -19.7470  -17.0720  -23.8510 C.ar    1  UNL1        0.0240
     43  O        -20.4880  -18.2100  -19.9480 O.3     1  UNL1       -0.3570
     44  H        -19.6620  -18.5650  -19.5810 H       1  UNL1        0.2170
     45  O        -18.5880  -19.4910  -21.3610 O.3     1  UNL1       -0.3560
     46  H        -17.9130  -19.0440  -20.8140 H       1  UNL1        0.2180
     47  O        -18.0350  -18.7310  -23.9840 O.3     1  UNL1       -0.3570
     48  H        -18.4470  -19.3110  -24.6530 H       1  UNL1        0.2170
     49  O        -18.2620  -12.0000  -21.3410 O.3     1  UNL1       -0.3590
     50  H        -18.7860  -11.1850  -21.3570 H       1  UNL1        0.2170
     51  O        -16.7940  -16.3450  -25.5320 O.3     1  UNL1       -0.3790
     52  H        -15.9450  -16.2570  -25.0540 H       1  UNL1        0.2110
     53  C        -14.3860  -14.7800  -26.4340 C.ar    1  UNL1        0.0360
     54  C        -13.6600  -14.8060  -27.6460 C.ar    1  UNL1        0.0260
     55  C        -12.3830  -15.3690  -27.7020 C.ar    1  UNL1        0.1130
     56  C        -11.8100  -15.9070  -26.5570 C.ar    1  UNL1        0.1340
     57  C        -12.5070  -15.8840  -25.3530 C.ar    1  UNL1        0.1130
     58  C        -13.7810  -15.3260  -25.2790 C.ar    1  UNL1        0.0260
     59  O        -11.6890  -15.3960  -28.8790 O.3     1  UNL1       -0.3570
     60  H        -12.2990  -15.5890  -29.6070 H       1  UNL1        0.2170
     61  O        -10.5610  -16.4650  -26.5910 O.3     1  UNL1       -0.3560
     62  H        -10.6360  -17.2030  -27.2240 H       1  UNL1        0.2180
     63  O        -11.8970  -16.4250  -24.2520 O.3     1  UNL1       -0.3570
     64  H        -10.9840  -16.0940  -24.2130 H       1  UNL1        0.2170
     65  O        -20.6130  -13.8020  -27.7710 O.3     1  UNL1       -0.3590
     66  H        -20.9520  -14.3170  -28.5210 H       1  UNL1        0.2170
     67  O        -18.3870  -10.6200  -30.4940 O.3     1  UNL1       -0.3590
     68  H        -18.8480   -9.8410  -30.1390 H       1  UNL1        0.2170
@<TRIPOS>BOND
     1    67    68    1
     2    67    21    1
     3    60    59    1
     4    21    20   ar
     5    21    19   ar
     6    20    18   ar
     7    19    11   ar
     8    59    55    1
     9    66    65    1
    10    18    65    1
    11    18     8   ar
    12    11     8   ar
    13    11     2    1
    14    55    54   ar
    15    55    56   ar
    16    54    53   ar
    17     8     4    1
    18     2     6    1
    19    62    61    1
    20    61    56    1
    21    56    57   ar
    22     5     4    1
    23     5     6    1
    24     5    51    1
    25    53     6    1
    26    53    58   ar
    27     4     7    1
    28     6     1    1
    29    36    35    1
    30    35    29    1
    31    51    52    1
    32    57    58   ar
    33    57    63    1
    34     1     9    1
    35     7     9   ar
    36     7    10   ar
    37     3    10    1
    38     3    15    1
    39    48    47    1
    40     9    16   ar
    41    29    30   ar
    42    29    28   ar
    43    10    12   ar
    44    63    64    1
    45    30    25   ar
    46    47    41    1
    47    42    41   ar
    48    42    37   ar
    49    15    37    1
    50    15    14    1
    51    33    28    1
    52    33    34    1
    53    28    27   ar
    54    16    17   ar
    55    41    40   ar
    56    37    38   ar
    57    12    17   ar
    58    12    13    1
    59    14    13    1
    60    14    22    1
    61    25    23    1
    62    25    26   ar
    63    24    23    2
    64    17    49    1
    65    23    22    1
    66    27    26   ar
    67    27    31    1
    68    40    45    1
    69    40    39   ar
    70    38    39   ar
    71    45    46    1
    72    50    49    1
    73    31    32    1
    74    39    43    1
    75    43    44    1
@<TRIPOS>MOLECULE
./../dock_file/temp/d0e0b64a93c0ef4dae4e886b6c92596a/5wb0_M:5_5wb0_M_IMPHY002722_3D_out_5.-9.4:1756376198366/5wb0_M:5_5wb0_M_IMPHY002722_3D_out_5.-9.4_out_1.pdbqt
 68 75 0 0 0
SMALL
GASTEIGER

@<TRIPOS>ATOM
      1  O        -13.2140  -18.1460  -24.6370 O.3     1  UNL1       -0.3040
      2  O        -13.8760  -20.3630  -24.2060 O.3     1  UNL1       -0.3040
      3  O        -17.6060  -16.5140  -25.6140 O.3     1  UNL1       -0.3270
      4  C        -16.0600  -18.4510  -24.2390 C.3     1  UNL1        0.0840
      5  C        -15.1120  -18.5340  -23.0420 C.3     1  UNL1        0.1750
      6  C        -13.7630  -19.0350  -23.6400 C.3     1  UNL1        0.2420
      7  C        -15.4730  -17.4560  -25.2220 C.ar    1  UNL1        0.0290
      8  C        -16.1660  -19.8280  -24.8520 C.ar    1  UNL1        0.0290
      9  C        -14.0880  -17.4140  -25.3900 C.ar    1  UNL1        0.0970
     10  C        -16.2650  -16.5320  -25.9230 C.ar    1  UNL1        0.0910
     11  C        -15.0550  -20.6790  -24.8230 C.ar    1  UNL1        0.0970
     12  C        -15.7020  -15.6220  -26.8370 C.ar    1  UNL1        0.0250
     13  C        -16.5730  -14.6080  -27.5270 C.3     1  UNL1        0.0630
     14  C        -18.0590  -14.7760  -27.1980 C.3     1  UNL1        0.1610
     15  C        -18.2240  -15.2110  -25.7260 C.3     1  UNL1        0.1720
     16  C        -13.5140  -16.5340  -26.3030 C.ar    1  UNL1        0.0480
     17  C        -14.3160  -15.6550  -27.0260 C.ar    1  UNL1        0.0890
     18  C        -17.3350  -20.2770  -25.4800 C.ar    1  UNL1        0.0900
     19  C        -15.1060  -21.9430  -25.4150 C.ar    1  UNL1        0.0480
     20  C        -17.3960  -21.5360  -26.0750 C.ar    1  UNL1        0.0480
     21  C        -16.2750  -22.3570  -26.0400 C.ar    1  UNL1        0.0930
     22  O        -18.7520  -13.5610  -27.5370 O.3     1  UNL1       -0.2980
     23  C        -19.6300  -13.6510  -28.5670 C.2     1  UNL1        0.2960
     24  O        -20.3110  -14.6250  -28.8410 O.2     1  UNL1       -0.2590
     25  C        -19.6860  -12.3710  -29.3200 C.ar    1  UNL1        0.0670
     26  C        -20.9030  -11.7760  -29.6880 C.ar    1  UNL1        0.0310
     27  C        -20.8900  -10.5900  -30.4090 C.ar    1  UNL1        0.1140
     28  C        -19.6880   -9.9890  -30.7590 C.ar    1  UNL1        0.1340
     29  C        -18.4800  -10.5700  -30.3920 C.ar    1  UNL1        0.1140
     30  C        -18.4670  -11.7600  -29.6740 C.ar    1  UNL1        0.0310
     31  O        -22.0730  -10.0200  -30.7750 O.3     1  UNL1       -0.3570
     32  H        -21.9090   -9.6590  -31.6710 H       1  UNL1        0.2170
     33  O        -19.7140   -8.8200  -31.4690 O.3     1  UNL1       -0.3560
     34  H        -19.5090   -8.1270  -30.8060 H       1  UNL1        0.2180
     35  O        -17.3290   -9.9340  -30.7640 O.3     1  UNL1       -0.3570
     36  H        -17.1840   -9.1780  -30.1690 H       1  UNL1        0.2170
     37  C        -17.7400  -14.2900  -24.5920 C.ar    1  UNL1        0.0110
     38  C        -16.9280  -14.7280  -23.5340 C.ar    1  UNL1        0.0240
     39  C        -16.5590  -13.8390  -22.5210 C.ar    1  UNL1        0.1130
     40  C        -16.9900  -12.5130  -22.5350 C.ar    1  UNL1        0.1340
     41  C        -17.7750  -12.0570  -23.5820 C.ar    1  UNL1        0.1130
     42  C        -18.1070  -12.9250  -24.6190 C.ar    1  UNL1        0.0240
     43  O        -15.7750  -14.2370  -21.4700 O.3     1  UNL1       -0.3570
     44  H        -14.8410  -14.1290  -21.7190 H       1  UNL1        0.2170
     45  O        -16.6370  -11.6860  -21.5050 O.3     1  UNL1       -0.3560
     46  H        -16.6200  -10.7930  -21.8990 H       1  UNL1        0.2180
     47  O        -18.2390  -10.7730  -23.5940 O.3     1  UNL1       -0.3570
     48  H        -19.2090  -10.7850  -23.7060 H       1  UNL1        0.2170
     49  O        -13.6580  -14.8180  -27.8820 O.3     1  UNL1       -0.3590
     50  H        -14.1970  -14.0340  -28.0680 H       1  UNL1        0.2170
     51  O        -15.0620  -17.2660  -22.3480 O.3     1  UNL1       -0.3790
     52  H        -15.3140  -16.5720  -22.9880 H       1  UNL1        0.2110
     53  C        -12.7310  -19.1640  -22.5030 C.ar    1  UNL1        0.0360
     54  C        -11.6880  -18.2250  -22.3410 C.ar    1  UNL1        0.0260
     55  C        -10.7690  -18.3500  -21.2970 C.ar    1  UNL1        0.1130
     56  C        -10.8780  -19.4050  -20.3990 C.ar    1  UNL1        0.1340
     57  C        -11.9040  -20.3350  -20.5380 C.ar    1  UNL1        0.1130
     58  C        -12.8290  -20.2240  -21.5740 C.ar    1  UNL1        0.0260
     59  O         -9.7590  -17.4430  -21.1490 O.3     1  UNL1       -0.3570
     60  H         -9.2060  -17.6960  -20.3940 H       1  UNL1        0.2170
     61  O         -9.9880  -19.5470  -19.3690 O.3     1  UNL1       -0.3560
     62  H        -10.4300  -20.1450  -18.7390 H       1  UNL1        0.2180
     63  O        -11.9690  -21.3540  -19.6250 O.3     1  UNL1       -0.3570
     64  H        -12.6880  -21.1620  -19.0000 H       1  UNL1        0.2170
     65  O        -18.4330  -19.4660  -25.4900 O.3     1  UNL1       -0.3590
     66  H        -18.5290  -19.0700  -26.3720 H       1  UNL1        0.2170
     67  O        -16.3690  -23.5810  -26.6340 O.3     1  UNL1       -0.3590
     68  H        -16.6660  -24.2290  -25.9730 H       1  UNL1        0.2170
@<TRIPOS>BOND
     1    32    31    1
     2    33    34    1
     3    33    28    1
     4    31    27    1
     5    35    29    1
     6    35    36    1
     7    28    27   ar
     8    28    29   ar
     9    27    26   ar
    10    29    30   ar
    11    26    25   ar
    12    30    25   ar
    13    25    23    1
    14    24    23    2
    15    23    22    1
    16    50    49    1
    17    49    17    1
    18    22    14    1
    19    13    14    1
    20    13    12    1
    21    14    15    1
    22    17    12   ar
    23    17    16   ar
    24    12    10   ar
    25    67    21    1
    26    67    68    1
    27    66    65    1
    28    16     9   ar
    29    20    21   ar
    30    20    18   ar
    31    21    19   ar
    32    10     3    1
    33    10     7   ar
    34    15     3    1
    35    15    37    1
    36    65    18    1
    37    18     8   ar
    38    19    11   ar
    39     9     7   ar
    40     9     1    1
    41     7     4    1
    42     8    11   ar
    43     8     4    1
    44    11     2    1
    45     1     6    1
    46    42    37   ar
    47    42    41   ar
    48    37    38   ar
    49     4     5    1
    50     2     6    1
    51    48    47    1
    52     6     5    1
    53     6    53    1
    54    47    41    1
    55    41    40   ar
    56    38    39   ar
    57     5    51    1
    58    52    51    1
    59    40    39   ar
    60    40    45    1
    61    39    43    1
    62    53    54   ar
    63    53    58   ar
    64    54    55   ar
    65    46    45    1
    66    44    43    1
    67    58    57   ar
    68    55    59    1
    69    55    56   ar
    70    59    60    1
    71    57    56   ar
    72    57    63    1
    73    56    61    1
    74    63    64    1
    75    61    62    1
@<TRIPOS>MOLECULE
./../dock_file/temp/d0e0b64a93c0ef4dae4e886b6c92596a/5wb0_M:5_5wb0_M_IMPHY002722_3D_out_5.-9.4:1756376198366/5wb0_M:5_5wb0_M_IMPHY002722_3D_out_5.-9.4_out_1.pdbqt
 68 75 0 0 0
SMALL
GASTEIGER

@<TRIPOS>ATOM
      1  O        -18.0990  -15.0230  -27.7040 O.3     1  UNL1       -0.3040
      2  O        -16.1630  -14.0990  -28.6700 O.3     1  UNL1       -0.3040
      3  O        -16.1830  -15.7420  -23.3780 O.3     1  UNL1       -0.3270
      4  C        -16.1060  -14.2260  -25.7700 C.3     1  UNL1        0.0840
      5  C        -16.9350  -13.1620  -26.4910 C.3     1  UNL1        0.1750
      6  C        -17.3220  -13.8150  -27.8520 C.3     1  UNL1        0.2420
      7  C        -16.9880  -15.4450  -25.5810 C.ar    1  UNL1        0.0290
      8  C        -14.9040  -14.5470  -26.6290 C.ar    1  UNL1        0.0290
      9  C        -17.8870  -15.7880  -26.5920 C.ar    1  UNL1        0.0970
     10  C        -16.9790  -16.2050  -24.4010 C.ar    1  UNL1        0.0910
     11  C        -15.0240  -14.4940  -28.0230 C.ar    1  UNL1        0.0970
     12  C        -17.7990  -17.3390  -24.2480 C.ar    1  UNL1        0.0250
     13  C        -17.8050  -18.0970  -22.9480 C.3     1  UNL1        0.0630
     14  C        -16.7850  -17.5600  -21.9400 C.3     1  UNL1        0.1610
     15  C        -16.6940  -16.0230  -22.0540 C.3     1  UNL1        0.1720
     16  C        -18.6920  -16.9160  -26.4680 C.ar    1  UNL1        0.0480
     17  C        -18.6390  -17.6880  -25.3100 C.ar    1  UNL1        0.0890
     18  C        -13.6740  -14.9280  -26.0780 C.ar    1  UNL1        0.0900
     19  C        -13.9450  -14.8230  -28.8470 C.ar    1  UNL1        0.0480
     20  C        -12.5920  -15.2590  -26.8910 C.ar    1  UNL1        0.0480
     21  C        -12.7400  -15.2070  -28.2720 C.ar    1  UNL1        0.0930
     22  O        -17.1330  -18.0360  -20.6270 O.3     1  UNL1       -0.2980
     23  C        -16.4020  -19.0820  -20.1660 C.2     1  UNL1        0.2960
     24  O        -16.8520  -20.1400  -19.7570 O.2     1  UNL1       -0.2590
     25  C        -14.9490  -18.7860  -20.2560 C.ar    1  UNL1        0.0670
     26  C        -14.1840  -19.1430  -21.3770 C.ar    1  UNL1        0.0310
     27  C        -12.8250  -18.8570  -21.3920 C.ar    1  UNL1        0.1140
     28  C        -12.2250  -18.2180  -20.3160 C.ar    1  UNL1        0.1340
     29  C        -12.9800  -17.8570  -19.2060 C.ar    1  UNL1        0.1140
     30  C        -14.3400  -18.1370  -19.1640 C.ar    1  UNL1        0.0310
     31  O        -12.0820  -19.2150  -22.4780 O.3     1  UNL1       -0.3570
     32  H        -11.8750  -20.1620  -22.3370 H       1  UNL1        0.2170
     33  O        -10.8840  -17.9520  -20.3660 O.3     1  UNL1       -0.3560
     34  H        -10.6900  -17.8600  -21.3230 H       1  UNL1        0.2180
     35  O        -12.3350  -17.2300  -18.1760 O.3     1  UNL1       -0.3570
     36  H        -11.5580  -16.7650  -18.5300 H       1  UNL1        0.2170
     37  C        -17.9310  -15.1550  -21.7630 C.ar    1  UNL1        0.0110
     38  C        -18.9080  -15.4930  -20.8130 C.ar    1  UNL1        0.0240
     39  C        -20.0230  -14.6700  -20.6320 C.ar    1  UNL1        0.1130
     40  C        -20.1910  -13.5110  -21.3880 C.ar    1  UNL1        0.1340
     41  C        -19.2270  -13.1490  -22.3170 C.ar    1  UNL1        0.1130
     42  C        -18.0910  -13.9390  -22.4680 C.ar    1  UNL1        0.0240
     43  O        -20.9970  -14.9760  -19.7200 O.3     1  UNL1       -0.3570
     44  H        -21.8120  -14.5050  -19.9630 H       1  UNL1        0.2170
     45  O        -21.3150  -12.7530  -21.2060 O.3     1  UNL1       -0.3560
     46  H        -21.8140  -13.2130  -20.5050 H       1  UNL1        0.2180
     47  O        -19.3940  -12.0390  -23.0940 O.3     1  UNL1       -0.3570
     48  H        -20.1060  -12.2060  -23.7400 H       1  UNL1        0.2170
     49  O        -19.4820  -18.7640  -25.2740 O.3     1  UNL1       -0.3590
     50  H        -19.7860  -18.9240  -24.3680 H       1  UNL1        0.2170
     51  O        -18.0390  -12.7330  -25.6600 O.3     1  UNL1       -0.3790
     52  H        -18.7370  -12.3910  -26.2530 H       1  UNL1        0.2110
     53  C        -18.1600  -12.8110  -28.6660 C.ar    1  UNL1        0.0360
     54  C        -17.5530  -11.7930  -29.4340 C.ar    1  UNL1        0.0260
     55  C        -18.3280  -10.9000  -30.1780 C.ar    1  UNL1        0.1130
     56  C        -19.7130  -11.0100  -30.1710 C.ar    1  UNL1        0.1340
     57  C        -20.3280  -12.0130  -29.4270 C.ar    1  UNL1        0.1130
     58  C        -19.5690  -12.9110  -28.6810 C.ar    1  UNL1        0.0260
     59  O        -17.7350   -9.9130  -30.9130 O.3     1  UNL1       -0.3570
     60  H        -16.8590   -9.7200  -30.5460 H       1  UNL1        0.2170
     61  O        -20.4910  -10.1450  -30.8920 O.3     1  UNL1       -0.3560
     62  H        -20.4170   -9.2940  -30.4200 H       1  UNL1        0.2180
     63  O        -21.6950  -12.0810  -29.4570 O.3     1  UNL1       -0.3570
     64  H        -21.9620  -12.5500  -30.2650 H       1  UNL1        0.2170
     65  O        -13.5390  -14.9560  -24.7200 O.3     1  UNL1       -0.3590
     66  H        -12.8230  -15.5670  -24.4830 H       1  UNL1        0.2170
     67  O        -11.6620  -15.5410  -29.0370 O.3     1  UNL1       -0.3590
     68  H        -11.9200  -16.2490  -29.6510 H       1  UNL1        0.2170
@<TRIPOS>BOND
     1    59    60    1
     2    59    55    1
     3    61    62    1
     4    61    56    1
     5    64    63    1
     6    55    56   ar
     7    55    54   ar
     8    56    57   ar
     9    68    67    1
    10    63    57    1
    11    54    53   ar
    12    57    58   ar
    13    67    21    1
    14    19    21   ar
    15    19    11   ar
    16    58    53   ar
    17     2    11    1
    18     2     6    1
    19    53     6    1
    20    21    20   ar
    21    11     8   ar
    22     6     1    1
    23     6     5    1
    24     1     9    1
    25    20    18   ar
    26     8    18   ar
    27     8     4    1
    28     9    16   ar
    29     9     7   ar
    30     5     4    1
    31     5    51    1
    32    16    17   ar
    33    52    51    1
    34    18    65    1
    35     4     7    1
    36     7    10   ar
    37    17    49    1
    38    17    12   ar
    39    49    50    1
    40    65    66    1
    41    10    12   ar
    42    10     3    1
    43    12    13    1
    44    48    47    1
    45     3    15    1
    46    47    41    1
    47    13    14    1
    48    31    32    1
    49    31    27    1
    50    42    41   ar
    51    42    37   ar
    52    41    40   ar
    53    15    14    1
    54    15    37    1
    55    14    22    1
    56    37    38   ar
    57    27    26   ar
    58    27    28   ar
    59    40    45    1
    60    40    39   ar
    61    26    25   ar
    62    34    33    1
    63    45    46    1
    64    38    39   ar
    65    39    43    1
    66    22    23    1
    67    33    28    1
    68    28    29   ar
    69    25    23    1
    70    25    30   ar
    71    23    24    2
    72    44    43    1
    73    29    30   ar
    74    29    35    1
    75    36    35    1
@<TRIPOS>MOLECULE
./../dock_file/temp/d0e0b64a93c0ef4dae4e886b6c92596a/5wb0_M:5_5wb0_M_IMPHY002722_3D_out_5.-9.4:1756376198366/5wb0_M:5_5wb0_M_IMPHY002722_3D_out_5.-9.4_out_1.pdbqt
 68 75 0 0 0
SMALL
GASTEIGER

@<TRIPOS>ATOM
      1  O        -15.0910  -14.3480  -26.4340 O.3     1  UNL1       -0.3040
      2  O        -16.6510  -13.0660  -25.2260 O.3     1  UNL1       -0.3040
      3  O        -14.2140  -17.4780  -22.9210 O.3     1  UNL1       -0.3270
      4  C        -16.0680  -15.6560  -24.0500 C.3     1  UNL1        0.0840
      5  C        -16.9710  -15.5400  -25.2790 C.3     1  UNL1        0.1750
      6  C        -16.4720  -14.2640  -26.0190 C.3     1  UNL1        0.2420
      7  C        -14.6420  -15.8100  -24.5420 C.ar    1  UNL1        0.0290
      8  C        -16.2310  -14.4000  -23.2270 C.ar    1  UNL1        0.0290
      9  C        -14.2390  -15.0980  -25.6730 C.ar    1  UNL1        0.0970
     10  C        -13.7280  -16.6910  -23.9400 C.ar    1  UNL1        0.0910
     11  C        -16.4780  -13.1830  -23.8740 C.ar    1  UNL1        0.0970
     12  C        -12.4060  -16.8130  -24.4060 C.ar    1  UNL1        0.0250
     13  C        -11.4710  -17.8080  -23.7730 C.3     1  UNL1        0.0630
     14  C        -12.0910  -18.5270  -22.5710 C.3     1  UNL1        0.1610
     15  C        -13.5920  -18.7810  -22.8270 C.3     1  UNL1        0.1720
     16  C        -12.9310  -15.1910  -26.1380 C.ar    1  UNL1        0.0480
     17  C        -12.0220  -16.0330  -25.5020 C.ar    1  UNL1        0.0890
     18  C        -16.1120  -14.4020  -21.8310 C.ar    1  UNL1        0.0900
     19  C        -16.5940  -11.9960  -23.1460 C.ar    1  UNL1        0.0480
     20  C        -16.2250  -13.2240  -21.0960 C.ar    1  UNL1        0.0480
     21  C        -16.4620  -12.0280  -21.7640 C.ar    1  UNL1        0.0930
     22  O        -11.3280  -19.7160  -22.2950 O.3     1  UNL1       -0.2980
     23  C        -10.0070  -19.5280  -22.0580 C.2     1  UNL1        0.2960
     24  O         -9.5320  -18.8920  -21.1310 O.2     1  UNL1       -0.2590
     25  C         -9.1850  -20.2380  -23.0720 C.ar    1  UNL1        0.0670
     26  C         -9.7580  -21.0830  -24.0360 C.ar    1  UNL1        0.0310
     27  C         -8.9350  -21.7340  -24.9450 C.ar    1  UNL1        0.1140
     28  C         -7.5600  -21.5490  -24.9120 C.ar    1  UNL1        0.1340
     29  C         -6.9880  -20.7080  -23.9640 C.ar    1  UNL1        0.1140
     30  C         -7.7900  -20.0490  -23.0400 C.ar    1  UNL1        0.0310
     31  O         -9.4930  -22.5630  -25.8720 O.3     1  UNL1       -0.3570
     32  H         -8.7520  -22.8110  -26.4630 H       1  UNL1        0.2170
     33  O         -6.7800  -22.2070  -25.8230 O.3     1  UNL1       -0.3560
     34  H         -7.4210  -22.6820  -26.3940 H       1  UNL1        0.2180
     35  O         -5.6280  -20.5650  -23.9790 O.3     1  UNL1       -0.3570
     36  H         -5.2270  -21.3490  -23.5660 H       1  UNL1        0.2170
     37  C        -14.0320  -19.6690  -24.0030 C.ar    1  UNL1        0.0110
     38  C        -15.3750  -19.8820  -24.3520 C.ar    1  UNL1        0.0240
     39  C        -15.6970  -20.7340  -25.4110 C.ar    1  UNL1        0.1130
     40  C        -14.7020  -21.3900  -26.1350 C.ar    1  UNL1        0.1340
     41  C        -13.3690  -21.1760  -25.8200 C.ar    1  UNL1        0.1130
     42  C        -13.0400  -20.2920  -24.7960 C.ar    1  UNL1        0.0240
     43  O        -16.9980  -20.9690  -25.7710 O.3     1  UNL1       -0.3570
     44  H        -17.3140  -21.7590  -25.3010 H       1  UNL1        0.2170
     45  O        -15.0610  -22.2430  -27.1410 O.3     1  UNL1       -0.3560
     46  H        -15.0430  -21.6960  -27.9490 H       1  UNL1        0.2180
     47  O        -12.3820  -21.8390  -26.4910 O.3     1  UNL1       -0.3570
     48  H        -12.7820  -22.5510  -27.0270 H       1  UNL1        0.2170
     49  O        -10.7680  -16.0710  -26.0440 O.3     1  UNL1       -0.3590
     50  H        -10.4260  -15.1730  -26.1660 H       1  UNL1        0.2170
     51  O        -16.9420  -16.7670  -26.0450 O.3     1  UNL1       -0.3790
     52  H        -16.1710  -17.2850  -25.7390 H       1  UNL1        0.2110
     53  C        -17.3310  -14.0490  -27.2800 C.ar    1  UNL1        0.0360
     54  C        -18.5940  -13.4210  -27.2150 C.ar    1  UNL1        0.0260
     55  C        -19.3540  -13.2230  -28.3710 C.ar    1  UNL1        0.1130
     56  C        -18.8660  -13.6410  -29.6030 C.ar    1  UNL1        0.1340
     57  C        -17.6200  -14.2550  -29.6860 C.ar    1  UNL1        0.1130
     58  C        -16.8500  -14.4590  -28.5440 C.ar    1  UNL1        0.0260
     59  O        -20.5780  -12.6200  -28.3010 O.3     1  UNL1       -0.3570
     60  H        -21.2720  -13.2950  -28.3480 H       1  UNL1        0.2170
     61  O        -19.5950  -13.4580  -30.7460 O.3     1  UNL1       -0.3560
     62  H        -20.3640  -12.9260  -30.4680 H       1  UNL1        0.2180
     63  O        -17.1840  -14.6460  -30.9240 O.3     1  UNL1       -0.3570
     64  H        -16.2130  -14.6840  -30.9100 H       1  UNL1        0.2170
     65  O        -15.8970  -15.5870  -21.1890 O.3     1  UNL1       -0.3590
     66  H        -15.0980  -16.0050  -21.5480 H       1  UNL1        0.2170
     67  O        -16.5630  -10.8940  -21.0140 O.3     1  UNL1       -0.3590
     68  H        -16.4520  -10.1220  -21.5950 H       1  UNL1        0.2170
@<TRIPOS>BOND
     1    63    64    1
     2    63    57    1
     3    61    62    1
     4    61    56    1
     5    57    56   ar
     6    57    58   ar
     7    56    55   ar
     8    58    53   ar
     9    55    59    1
    10    55    54   ar
    11    60    59    1
    12    46    45    1
    13    53    54   ar
    14    53     6    1
    15    45    40    1
    16    48    47    1
    17    47    41    1
    18    32    31    1
    19     1     6    1
    20     1     9    1
    21    34    33    1
    22    50    49    1
    23    16     9   ar
    24    16    17   ar
    25    40    41   ar
    26    40    39   ar
    27    51    52    1
    28    51     5    1
    29    49    17    1
    30     6     5    1
    31     6     2    1
    32    31    27    1
    33    33    28    1
    34    41    42   ar
    35    43    39    1
    36    43    44    1
    37     9     7   ar
    38    17    12   ar
    39    39    38   ar
    40     5     4    1
    41     2    11    1
    42    27    28   ar
    43    27    26   ar
    44    28    29   ar
    45    42    37   ar
    46     7     4    1
    47     7    10   ar
    48    12    10   ar
    49    12    13    1
    50    38    37   ar
    51     4     8    1
    52    26    25   ar
    53    37    15    1
    54    35    29    1
    55    35    36    1
    56    29    30   ar
    57    10     3    1
    58    11     8   ar
    59    11    19   ar
    60    13    14    1
    61     8    18   ar
    62    19    21   ar
    63    25    30   ar
    64    25    23    1
    65     3    15    1
    66    15    14    1
    67    14    22    1
    68    22    23    1
    69    23    24    2
    70    18    65    1
    71    18    20   ar
    72    21    20   ar
    73    21    67    1
    74    68    67    1
    75    66    65    1
